* Spice description of amd2901
* Spice driver version 1074415736
* Date ( dd/mm/yyyy hh:mm:ss ): 10/06/2014 at  1:31:03

* INTERF a[0] a[1] a[2] a[3] b[0] b[1] b[2] b[3] cin clk cout d[0] d[1] d[2] 
* INTERF d[3] f3 i[0] i[1] i[2] i[3] i[4] i[5] i[6] i[7] i[8] ng noe np ovr 
* INTERF q0 q3 r0 r3 vdde vddi vsse vssi y[0] y[1] y[2] y[3] zero 


.subckt amd2901 3662 3136 2467 1941 1402 735 177 159 4408 180 4400 4545 4544 
+ 4543 4542 151 44 39 34 29 24 19 14 9 4 3573 738 3027 1828 4125 4128 4380 
+ 4371 4535 4478 4541 4540 4539 4538 4537 4536 1280 
* NET 1 = p_i8.node_cp
* NET 3 = p_i8.n6d
* NET 4 = i[8]
* NET 5 = p_i8.1019ymous_
* NET 6 = p_i7.585nymous_
* NET 7 = p_i7.31onymous_
* NET 8 = p_i7.n6d
* NET 9 = i[7]
* NET 10 = p_i7.vdde
* NET 11 = p_i6.node_cp
* NET 13 = p_i6.n6d
* NET 14 = i[6]
* NET 15 = p_i6.903nymous_
* NET 16 = p_i5.node_cp
* NET 18 = p_i5.n6d
* NET 19 = i[5]
* NET 20 = p_i5.1019ymous_
* NET 21 = p_i4.node_cp
* NET 23 = p_i4.n6d
* NET 24 = i[4]
* NET 25 = p_i4.1019ymous_
* NET 26 = p_i3.585nymous_
* NET 27 = p_i3.405nymous_
* NET 28 = p_i3.n6d
* NET 29 = i[3]
* NET 30 = p_i3.vdde
* NET 31 = p_i2.node_cp
* NET 33 = p_i2.312nymous_
* NET 34 = i[2]
* NET 35 = p_i2.903nymous_
* NET 36 = p_i1.node_cp
* NET 38 = p_i1.312nymous_
* NET 39 = i[1]
* NET 40 = p_i1.1019ymous_
* NET 41 = p_i0.585nymous_
* NET 43 = p_i0.n6d
* NET 44 = i[0]
* NET 45 = p_i0.vdde
* NET 46 = p_i8.766nymous_
* NET 47 = p_i8.n1
* NET 48 = p_i8.n0
* NET 49 = p_i8.79onymous_
* NET 50 = p_i8.58onymous_
* NET 51 = p_i8.n16c
* NET 52 = p_i8.nnt
* NET 53 = p_i8.1066ymous_
* NET 54 = p_i7.n5b
* NET 55 = p_i7.n0
* NET 56 = p_i7.79onymous_
* NET 57 = p_i7.93onymous_
* NET 58 = p_i7.58onymous_
* NET 59 = p_i7.n16c
* NET 60 = p_i7.259nymous_
* NET 61 = p_i7.196nymous_
* NET 62 = p_i6.n5a
* NET 63 = p_i6.111nymous_
* NET 64 = p_i6.n1
* NET 65 = p_i6.42onymous_
* NET 66 = p_i6.58onymous_
* NET 67 = p_i6.n16a
* NET 68 = p_i6.nnt
* NET 69 = p_i6.nt
* NET 70 = p_i5.766nymous_
* NET 71 = p_i5.n1
* NET 72 = p_i5.n0
* NET 73 = p_i5.79onymous_
* NET 74 = p_i5.58onymous_
* NET 75 = p_i5.n16c
* NET 76 = p_i5.259nymous_
* NET 77 = p_i5.1066ymous_
* NET 78 = p_vddeck1.246nymous_
* NET 79 = p_vddeck1.64onymous_
* NET 80 = p_vddeck0.253nymous_
* NET 81 = p_vddeck0.64onymous_
* NET 82 = p_i4.766nymous_
* NET 83 = p_i4.n1
* NET 84 = p_i4.n0
* NET 85 = p_i4.79onymous_
* NET 86 = p_i4.58onymous_
* NET 87 = p_i4.n16c
* NET 88 = p_i4.259nymous_
* NET 89 = p_i4.1066ymous_
* NET 90 = p_i3.n5b
* NET 91 = p_i3.n0
* NET 92 = p_i3.n4b
* NET 93 = p_i3.79onymous_
* NET 94 = p_i3.93onymous_
* NET 95 = p_i3.n16c
* NET 96 = p_i3.259nymous_
* NET 97 = p_i3.196nymous_
* NET 98 = p_i2.n5a
* NET 99 = p_i2.111nymous_
* NET 100 = p_i2.n1
* NET 101 = p_i2.42onymous_
* NET 102 = p_i2.58onymous_
* NET 103 = p_i2.n16a
* NET 104 = p_i2.nnt
* NET 105 = p_i2.nt
* NET 106 = p_i1.766nymous_
* NET 107 = p_i1.n1
* NET 108 = p_i1.n0
* NET 109 = p_i1.532nymous_
* NET 111 = p_i1.n16a
* NET 112 = p_i1.259nymous_
* NET 113 = p_i1.1066ymous_
* NET 114 = p_i0.160nymous_
* NET 115 = p_i0.n0
* NET 116 = p_i0.79onymous_
* NET 117 = p_i0.58onymous_
* NET 118 = p_i0.n1
* NET 119 = p_i0.n16c
* NET 120 = p_i0.259nymous_
* NET 121 = p_i0.221nymous_
* NET 122 = p_i8.1061ymous_
* NET 123 = i_from_pads[7]
* NET 124 = p_i6.1061ymous_
* NET 125 = p_i5.1060ymous_
* NET 126 = p_vddeck1.cko
* NET 127 = p_vddeck0.cko
* NET 128 = p_i4.1060ymous_
* NET 130 = i_from_pads[3]
* NET 131 = p_i0.1060ymous_
* NET 132 = p_f3.137nymous_
* NET 133 = p_b3.639nymous_
* NET 134 = p_b3.132nymous_
* NET 135 = p_f3.69onymous_
* NET 136 = p_f3.n17a
* NET 137 = p_b3.p1
* NET 138 = p_b3.57onymous_
* NET 139 = p_f3.n16b
* NET 140 = p_b3.1280ymous_
* NET 141 = p_b3.cpb
* NET 142 = p_b3.324nymous_
* NET 144 = p_f3.p6c
* NET 145 = p_f3.301nymous_
* NET 146 = p_f3.305nymous_
* NET 147 = p_f3.274nymous_
* NET 148 = f3_to_pads
* NET 149 = p_b3.nnt
* NET 150 = p_f3.227nymous_
* NET 151 = f3
* NET 152 = p_f3.197nymous_
* NET 153 = p_f3.224nymous_
* NET 154 = p_f3.193nymous_
* NET 155 = p_b3.1066ymous_
* NET 156 = p_b3.197nymous_
* NET 157 = p_b3.n14c
* NET 159 = b[3]
* NET 160 = p_f3.318nymous_
* NET 161 = p_b2.132nymous_
* NET 162 = p_b2.93onymous_
* NET 163 = p_b2.p2
* NET 164 = p_b2.cpb
* NET 165 = p_b2.414nymous_
* NET 166 = p_b2.n8b
* NET 168 = p_ck.p6a
* NET 169 = p_ck.24onymous_
* NET 170 = p_b2.259nymous_
* NET 171 = p_b2.1280ymous_
* NET 172 = p_ck.507nymous_
* NET 173 = p_ck.115nymous_
* NET 175 = p_b2.196nymous_
* NET 176 = b_from_pads[2]
* NET 177 = b[2]
* NET 178 = p_ck.711nymous_
* NET 179 = p_ck.720nymous_
* NET 180 = clk
* NET 200 = p_b2.n14a
* NET 201 = p_b2.568nymous_
* NET 207 = core.iram.not_aux144
* NET 210 = core.iram.not_aux144_ins.i0
* NET 211 = core.iram.inv_x2_3_sig
* NET 212 = core.iram.aux99_ins.i1
* NET 213 = b_from_pads[0]
* NET 229 = core.iram.not_aux84
* NET 238 = core.iram.not_aux52
* NET 245 = core.iram.ab_data_idx_10_1_ins.sff_m
* NET 247 = core.iram.ab_data_idx_10_1_ins.y
* NET 248 = core.iram.ab_data_idx_10_1_ins.sff_s
* NET 249 = core.iram.ab_data_idx_10_1_ins.ck
* NET 250 = core.iram.ab_data_idx_10_1_ins.nckr
* NET 251 = core.iram.ab_data_idx_10_1_ins.u
* NET 253 = core.iram.ab_data_idx_10_1_ins.ckr
* NET 255 = core.iram.na2_x1_40_sig
* NET 258 = core.iram.ao22_x2_38_sig
* NET 265 = core.iram.not_aux31
* NET 271 = core.iram.ab_data_idx_1_2_ins.sff_s
* NET 272 = core.iram.ab_data_idx_1_2_ins.y
* NET 274 = core.iram.ab_data_idx_1_2_ins.u
* NET 275 = core.iram.ab_data_idx_1_2_ins.sff_m
* NET 278 = core.iram.ab_data_idx_1_2_ins.nckr
* NET 280 = core.iram.ab_data_idx_1_2_ins.ckr
* NET 283 = core.iram.ao22_x2_7_sig
* NET 288 = core.iram.na2_x1_9_sig
* NET 291 = core.iram.not_aux53
* NET 296 = core.iram.not_aux54
* NET 300 = core.iram.not_aux33_ins.i0
* NET 303 = core.iram.not_aux32
* NET 309 = core.iram.ab_data_idx_0_2_ins.y
* NET 310 = core.iram.ab_data_idx_0_2_ins.sff_s
* NET 312 = core.iram.ab_data_idx_0_2_ins.sff_m
* NET 314 = core.iram.ab_data_idx_0_2_ins.ck
* NET 315 = core.iram.ab_data_idx_0_2_ins.u
* NET 317 = core.iram.ab_data_idx_0_2_ins.ckr
* NET 320 = core.iram.ao22_x2_3_sig
* NET 321 = core.iram.ab_data_idx_0_2_ins.nckr
* NET 326 = core.iram.na2_x1_5_sig
* NET 328 = core.iram.not_aux33
* NET 332 = core.iram.not_aux64
* NET 335 = core.iram.na2_x1_17_sig
* NET 341 = core.iram.ab_data_idx_3_2_ins.sff_s
* NET 342 = core.iram.ao22_x2_15_sig
* NET 343 = core.iram.ab_data_idx_3_2_ins.y
* NET 348 = core.iram.ab_data_idx_3_2_ins.sff_m
* NET 350 = core.iram.ab_data_idx_3_2_ins.ckr
* NET 351 = core.iram.ab_data_idx_3_2_ins.nckr
* NET 352 = core.iram.ab_data_idx_3_2_ins.u
* NET 353 = core.iram.ab_data_idx_15_1_ins.sff_s
* NET 356 = core.iram.ab_data_idx_15_1_ins.y
* NET 358 = core.iram.ab_data_idx_15_1_ins.sff_m
* NET 359 = core.iram.ab_data_idx_15_1_ins.ck
* NET 360 = core.iram.ab_data_idx_15_1_ins.nckr
* NET 361 = core.iram.ab_data_idx_15_1_ins.u
* NET 362 = core.iram.ab_data_idx_15_1_ins.ckr
* NET 363 = core.iram.aux97_ins.i0
* NET 365 = core.iram.aux97
* NET 367 = core.iram.not_b_0_ins.i
* NET 369 = core.iram.ab_data_idx_9_2_ins.sff_s
* NET 370 = core.iram.ab_data_idx_9_2_ins.y
* NET 372 = core.iram.ab_data_idx_9_2_ins.u
* NET 374 = core.iram.ab_data_idx_9_2_ins.sff_m
* NET 375 = core.iram.a3_x2_3_sig
* NET 377 = core.iram.ab_data_idx_9_2_ins.ckr
* NET 378 = core.iram.ab_data_idx_9_2_ins.nckr
* NET 380 = core.iram.noa22_x1_2_sig
* NET 381 = core.iram.inv_x2_6_sig
* NET 385 = core.iram.not_aux74
* NET 388 = core.iram.ab_data_idx_8_2_ins.sff_s
* NET 389 = core.iram.ab_data_idx_8_2_ins.y
* NET 391 = core.iram.ab_data_idx_8_2_ins.sff_m
* NET 392 = core.iram.ab_data_idx_8_2_ins.ck
* NET 393 = core.iram.ab_data_idx_8_2_ins.u
* NET 395 = core.iram.ab_data_idx_8_2_ins.ckr
* NET 396 = core.iram.ab_data_idx_8_2_ins.nckr
* NET 397 = core.iram.ao22_x2_35_sig
* NET 400 = core.iram.na2_x1_37_sig
* NET 402 = core.iram.not_aux77
* NET 404 = core.iram.not_aux76
* NET 406 = core.iram.not_aux22
* NET 409 = core.iram.na2_x1_41_sig
* NET 412 = core.iram.ab_data_idx_10_2_ins.y
* NET 415 = core.iram.ab_data_idx_10_2_ins.sff_s
* NET 416 = core.iram.ao22_x2_39_sig
* NET 417 = core.iram.ab_data_idx_10_2_ins.ckr
* NET 418 = core.iram.ab_data_idx_10_2_ins.u
* NET 420 = core.iram.ab_data_idx_10_2_ins.sff_m
* NET 422 = core.iram.ab_data_idx_10_2_ins.nckr
* NET 424 = core.iram.ab_data_idx_0_1_ins.sff_s
* NET 426 = core.iram.ab_data_idx_0_1_ins.y
* NET 428 = core.iram.ab_data_idx_0_1_ins.sff_m
* NET 429 = core.iram.ab_data_idx_0_1_ins.u
* NET 431 = p_noe.1061ymous_
* NET 432 = core.iram.ab_data_idx_0_1_ins.ck
* NET 433 = core.iram.ab_data_idx_0_1_ins.nckr
* NET 434 = core.iram.ab_data_idx_0_1_ins.ckr
* NET 435 = core.iram.ao22_x2_2_sig
* NET 438 = core.iram.not_aux24_ins.i0
* NET 440 = core.iram.na2_x1_4_sig
* NET 441 = core.iram.not_aux24
* NET 444 = core.iram.ab_data_idx_3_1_ins.sff_s
* NET 445 = core.iram.ab_data_idx_3_1_ins.y
* NET 447 = core.iram.ab_data_idx_3_1_ins.sff_m
* NET 449 = core.iram.ab_data_idx_3_1_ins.nckr
* NET 450 = core.iram.ab_data_idx_3_1_ins.u
* NET 451 = core.iram.ab_data_idx_3_1_ins.ckr
* NET 452 = core.iram.na2_x1_16_sig
* NET 455 = core.iram.ao22_x2_14_sig
* NET 458 = core.iram.na2_x1_33_sig
* NET 463 = core.iram.ab_data_idx_7_2_ins.sff_s
* NET 464 = core.iram.ao22_x2_31_sig
* NET 465 = core.iram.ab_data_idx_7_2_ins.y
* NET 468 = core.iram.ab_data_idx_7_2_ins.sff_m
* NET 469 = core.iram.ab_data_idx_7_2_ins.ck
* NET 470 = core.iram.ab_data_idx_7_2_ins.u
* NET 471 = core.iram.ab_data_idx_7_2_ins.nckr
* NET 472 = core.iram.ab_data_idx_7_2_ins.ckr
* NET 473 = p_b1.112nymous_
* NET 474 = p_b1.640nymous_
* NET 475 = p_noe.n17d
* NET 479 = core.iram.aux99_ins.nq
* NET 506 = p_b1.43onymous_
* NET 507 = p_b1.466nymous_
* NET 508 = p_noe.25onymous_
* NET 510 = core.iram.a2_x2_3_sig
* NET 511 = core.iram.oa2ao222_x2_2_sig
* NET 515 = core.iram.nao22_x1_7_ins.i0
* NET 516 = core.iram.nao22_x1_7_sig
* NET 520 = core.iram.not_b_3_ins.i
* NET 521 = core.iram.not_ab_data_idx_15[1]
* NET 527 = core.iram.ab_data_idx_8_1_ins.sff_m
* NET 528 = core.iram.ab_data_idx_8_1_ins.y
* NET 529 = core.iram.ab_data_idx_8_1_ins.sff_s
* NET 533 = core.iram.ab_data_idx_8_1_ins.u
* NET 535 = core.iram.ab_data_idx_8_1_ins.ckr
* NET 536 = core.iram.ab_data_idx_8_1_ins.nckr
* NET 537 = core.iram.not_aux134
* NET 544 = core.iram.not_aux83
* NET 547 = core.iram.ao22_x2_34_sig
* NET 553 = core.iram.na2_x1_36_sig
* NET 555 = core.iram.not_aux75
* NET 561 = core.iram.ab_data_idx_12_2_ins.sff_m
* NET 563 = core.iram.ab_data_idx_12_2_ins.y
* NET 564 = core.iram.ab_data_idx_12_2_ins.sff_s
* NET 566 = core.iram.ab_data_idx_12_2_ins.ck
* NET 567 = core.iram.ab_data_idx_12_2_ins.nckr
* NET 568 = core.iram.ab_data_idx_12_2_ins.u
* NET 569 = core.iram.ab_data_idx_12_2_ins.ckr
* NET 572 = core.iram.na2_x1_45_sig
* NET 573 = core.iram.ao22_x2_43_sig
* NET 576 = core.iram.not_aux88
* NET 581 = core.iram.not_aux49
* NET 589 = core.iram.ab_data_idx_1_1_ins.sff_s
* NET 591 = core.iram.ab_data_idx_1_1_ins.sff_m
* NET 593 = core.iram.ab_data_idx_1_1_ins.y
* NET 597 = core.iram.ab_data_idx_1_1_ins.u
* NET 598 = core.iram.ab_data_idx_1_1_ins.ckr
* NET 599 = core.iram.ab_data_idx_1_1_ins.nckr
* NET 600 = core.iram.ao22_x2_6_sig
* NET 603 = core.iram.na2_x1_8_sig
* NET 605 = core.iram.not_aux50
* NET 608 = core.iram.not_aux51_ins.i0
* NET 614 = core.iram.not_aux51
* NET 616 = core.iram.ab_data_idx_5_1_ins.y
* NET 617 = core.iram.ab_data_idx_5_1_ins.sff_s
* NET 620 = core.iram.ab_data_idx_5_1_ins.u
* NET 622 = core.iram.ab_data_idx_5_1_ins.sff_m
* NET 624 = core.iram.ab_data_idx_5_1_ins.ckr
* NET 625 = core.iram.ab_data_idx_5_1_ins.ck
* NET 626 = core.iram.ao22_x2_22_sig
* NET 627 = core.iram.ab_data_idx_5_1_ins.nckr
* NET 630 = core.iram.na2_x1_24_sig
* NET 633 = core.iram.not_aux23
* NET 637 = core.iram.ab_data_idx_4_1_ins.sff_s
* NET 640 = core.iram.ab_data_idx_4_1_ins.y
* NET 641 = core.iram.ab_data_idx_4_1_ins.sff_m
* NET 646 = core.iram.ab_data_idx_4_1_ins.ckr
* NET 647 = core.iram.ab_data_idx_4_1_ins.nckr
* NET 648 = core.iram.ab_data_idx_4_1_ins.u
* NET 649 = core.iram.na2_x1_20_sig
* NET 651 = core.iram.ao22_x2_18_sig
* NET 654 = core.iram.na2_x1_21_sig
* NET 658 = core.iram.not_aux63
* NET 661 = core.iram.not_aux59
* NET 662 = core.iram.na2_x1_32_sig
* NET 667 = core.iram.ab_data_idx_7_1_ins.sff_s
* NET 669 = core.iram.ao22_x2_30_sig
* NET 670 = core.iram.ab_data_idx_7_1_ins.y
* NET 673 = core.iram.ab_data_idx_7_1_ins.sff_m
* NET 676 = core.iram.ab_data_idx_7_1_ins.ck
* NET 677 = core.iram.ab_data_idx_7_1_ins.ckr
* NET 678 = core.iram.ab_data_idx_7_1_ins.nckr
* NET 679 = core.iram.ab_data_idx_7_1_ins.u
* NET 680 = p_b1.n6a
* NET 681 = p_b1.1280ymous_
* NET 682 = p_b1.n8a
* NET 683 = p_b1.324nymous_
* NET 684 = p_noe.p6a
* NET 686 = p_noe.p7a
* NET 687 = p_noe.n2
* NET 688 = p_noe.129nymous_
* NET 689 = core.iram.a2_x2_4_ins.i1
* NET 692 = core.iram.na3_x1_5_sig
* NET 693 = core.iram.not_aux145
* NET 694 = core.iram.na3_x1_6_sig
* NET 696 = core.iram.inv_x2_9_sig
* NET 700 = core.iram.ab_data_idx_12_1_ins.ck
* NET 701 = core.iram.na2_x1_44_sig
* NET 703 = core.iram.not_aux11_ins.i0
* NET 704 = core.iram.not_aux11_ins.i1
* NET 706 = core.iram.aux109
* NET 707 = a_from_pads[1]
* NET 708 = core.iram.ab_data_idx_9[2]
* NET 709 = core.iram.na3_x1_23_sig
* NET 710 = core.iram.na3_x1_24_sig
* NET 713 = core.iram.na3_x1_25_sig
* NET 714 = core.iram.na3_x1_24_ins.i0
* NET 715 = core.iram.ab_data_idx_1[2]
* NET 716 = core.iram.na3_x1_58_sig
* NET 720 = core.iram.na3_x1_57_ins.i0
* NET 721 = core.iram.na3_x1_57_sig
* NET 723 = core.iram.ab_data_idx_0[2]
* NET 725 = core.iram.na3_x1_55_sig
* NET 728 = core.iram.not_aux58
* NET 730 = core.iram.ao22_x2_31_ins.i1
* NET 731 = core.iram.aux62_ins.i0
* NET 733 = core.iram.ab_data_idx_6_2_ins.ck
* NET 734 = p_b1.nnt
* NET 735 = b[1]
* NET 736 = p_noe.772nymous_
* NET 737 = p_noe.815nymous_
* NET 738 = noe
* NET 739 = p_noe.156nymous_
* NET 740 = p_noe.766nymous_
* NET 743 = core.iram.a2_x2_4_sig
* NET 745 = core.iram.a2_x2_2_sig
* NET 748 = core.iram.ab_data_idx_11_1_ins.ckr
* NET 749 = core.iram.ab_data_idx_11_1_ins.nckr
* NET 750 = core.iram.ab_data_idx_11_1_ins.sff_m
* NET 751 = core.iram.ab_data_idx_11_1_ins.y
* NET 753 = core.iram.ab_data_idx_11_1_ins.sff_s
* NET 755 = core.iram.noa2a22_x1_3_sig
* NET 758 = core.iram.ab_data_idx_11_1_ins.u
* NET 763 = core.iram.not_aux117
* NET 765 = core.iram.not_aux125
* NET 766 = core.iram.ab_data_idx_12_1_ins.ckr
* NET 767 = core.iram.ab_data_idx_12_1_ins.nckr
* NET 768 = core.iram.ab_data_idx_12_1_ins.sff_m
* NET 769 = core.iram.ab_data_idx_12_1_ins.y
* NET 771 = core.iram.ab_data_idx_12_1_ins.sff_s
* NET 774 = core.iram.ab_data_idx_12_1_ins.u
* NET 777 = core.iram.ao22_x2_42_sig
* NET 785 = core.iram.not_aux11
* NET 787 = core.iram.ab_data_idx_4_2_ins.ckr
* NET 788 = core.iram.ab_data_idx_4_2_ins.nckr
* NET 791 = core.iram.ab_data_idx_4_2_ins.sff_s
* NET 792 = core.iram.ab_data_idx_4_2_ins.sff_m
* NET 794 = core.iram.ab_data_idx_4_2_ins.y
* NET 796 = core.iram.ao22_x2_19_sig
* NET 799 = core.iram.ab_data_idx_4_2_ins.u
* NET 803 = core.iram.aux157
* NET 807 = core.iram.ab_data_idx_6_2_ins.ckr
* NET 808 = core.iram.ab_data_idx_6_2_ins.nckr
* NET 809 = core.iram.ab_data_idx_6_2_ins.sff_s
* NET 812 = core.iram.ab_data_idx_6_2_ins.y
* NET 813 = core.iram.ab_data_idx_6_2_ins.sff_m
* NET 818 = core.iram.ab_data_idx_6_2_ins.u
* NET 819 = p_b1.nt
* NET 820 = p_b1.970nymous_
* NET 821 = p_b1.n14b
* NET 822 = p_b1.87onymous_
* NET 825 = core.iram.inv_x2_sig
* NET 829 = core.iram.aux139
* NET 830 = core.iram.na4_x1_ins.i2
* NET 835 = core.iram.ab_data_idx_9_1_ins.y
* NET 836 = core.iram.ab_data_idx_9_1_ins.sff_s
* NET 837 = core.iram.ab_data_idx_9_1_ins.sff_m
* NET 840 = core.iram.ab_data_idx_9_1_ins.u
* NET 842 = core.iram.ab_data_idx_9_1_ins.ckr
* NET 843 = core.iram.a3_x2_2_sig
* NET 844 = core.iram.ab_data_idx_9_1_ins.nckr
* NET 845 = core.iram.noa22_x1_sig
* NET 846 = core.iram.inv_x2_5_sig
* NET 848 = core.iram.not_aux118_ins.i0
* NET 853 = core.iram.not_aux126
* NET 855 = core.iram.not_aux118
* NET 856 = core.iram.not_aux92
* NET 859 = core.iram.inv_x2_10_sig
* NET 861 = core.iram.ab_data_idx_11_2_ins.sff_s
* NET 862 = core.iram.ab_data_idx_11_2_ins.y
* NET 864 = core.iram.ab_data_idx_11_2_ins.sff_m
* NET 866 = core.iram.ab_data_idx_11_2_ins.ck
* NET 867 = core.iram.noa2a22_x1_4_sig
* NET 868 = core.iram.ab_data_idx_11_2_ins.u
* NET 869 = core.iram.ab_data_idx_11_2_ins.ckr
* NET 870 = core.iram.ab_data_idx_11_2_ins.nckr
* NET 871 = core.iram.na3_x1_47_sig
* NET 874 = core.iram.na3_x1_46_sig
* NET 877 = core.iram.ab_data_idx_9[1]
* NET 882 = core.iram.na3_x1_56_sig
* NET 884 = core.iram.na3_x1_49_ins.i0
* NET 887 = core.iram.na3_x1_16_sig
* NET 888 = core.iram.na3_x1_15_sig
* NET 892 = core.iram.a3_x2_5_sig
* NET 896 = core.iram.na3_x1_18_sig
* NET 898 = core.iram.a2_x2_5_sig
* NET 900 = core.iram.na3_x1_19_sig
* NET 903 = core.iram.na3_x1_19_ins.i0
* NET 904 = core.iram.ab_data_idx_1[1]
* NET 907 = core.iram.na3_x1_51_sig
* NET 908 = core.iram.na3_x1_49_sig
* NET 913 = core.iram.ab_data_idx_0[1]
* NET 914 = core.iram.na3_x1_50_sig
* NET 917 = core.iram.a2_x2_10_sig
* NET 921 = core.iram.na3_x1_48_sig
* NET 926 = core.iram.ab_data_idx_4[1]
* NET 929 = core.iram.no2_x1_15_sig
* NET 930 = core.iram.noa2a2a2a24_x1_3_sig
* NET 932 = core.iram.no2_x1_17_ins.i0
* NET 933 = core.iram.no2_x1_17_sig
* NET 934 = core.iram.na2_x1_28_sig
* NET 937 = core.iram.na2_x1_29_sig
* NET 938 = core.iram.ao22_x2_27_sig
* NET 941 = core.iram.ab_data_idx_6_1_ins.sff_s
* NET 943 = core.iram.ao22_x2_26_sig
* NET 944 = core.iram.ab_data_idx_6_1_ins.y
* NET 945 = core.iram.ab_data_idx_6_1_ins.sff_m
* NET 949 = core.iram.ab_data_idx_6_1_ins.u
* NET 950 = core.iram.ab_data_idx_6_1_ins.ckr
* NET 951 = core.iram.ab_data_idx_6_1_ins.nckr
* NET 952 = p_zero.137nymous_
* NET 988 = core.iram.aux157_ins.i0
* NET 993 = p_b0.639nymous_
* NET 994 = p_b0.132nymous_
* NET 995 = p_zero.69onymous_
* NET 996 = p_zero.74onymous_
* NET 1000 = core.iram.o2_x2_sig
* NET 1001 = core.iram.inv_x2_14_sig
* NET 1004 = core.iram.na4_x1_sig
* NET 1007 = core.iram.no2_x1_sig
* NET 1008 = core.iram.on12_x1_sig
* NET 1011 = core.iram.ab_data_idx_13_1_ins.y
* NET 1012 = core.iram.ab_data_idx_13_1_ins.sff_s
* NET 1013 = core.iram.oa2a2a23_x2_sig
* NET 1014 = core.iram.ab_data_idx_13_1_ins.ckr
* NET 1015 = core.iram.ab_data_idx_13_1_ins.u
* NET 1016 = core.iram.ab_data_idx_13_1_ins.sff_m
* NET 1020 = core.iram.ab_data_idx_13_1_ins.ck
* NET 1021 = core.iram.ab_data_idx_13_1_ins.nckr
* NET 1026 = core.iram.not_aux71_ins.i0
* NET 1027 = core.iram.no2_x1_12_ins.i0
* NET 1030 = core.iram.ab_data_idx_12[1]
* NET 1032 = core.iram.ab_data_idx_13[1]
* NET 1033 = core.iram.no2_x1_13_sig
* NET 1035 = core.iram.no2_x1_12_sig
* NET 1037 = core.iram.noa2a2a23_x1_sig
* NET 1040 = core.iram.not_aux71
* NET 1042 = core.iram.no2_x1_46_ins.i0
* NET 1044 = core.iram.ab_data_idx_15[1]
* NET 1045 = core.iram.no2_x1_46_sig
* NET 1049 = core.iram.no2_x1_45_sig
* NET 1051 = core.iram.ab_data_idx_11[1]
* NET 1053 = core.iram.noa2a2a23_x1_4_sig
* NET 1055 = core.iram.na2_x1_52_sig
* NET 1056 = core.iram.na3_x1_21_sig
* NET 1057 = core.iram.na4_x1_4_sig
* NET 1058 = core.iram.na4_x1_5_sig
* NET 1061 = core.iram.ab_data_idx_10[1]
* NET 1062 = core.iram.na3_x1_17_sig
* NET 1063 = core.iram.ab_data_idx_5[1]
* NET 1064 = core.iram.na3_x1_45_sig
* NET 1065 = core.iram.na3_x1_45_ins.i0
* NET 1066 = core.iram.na3_x1_20_sig
* NET 1067 = core.iram.a2_x2_9_sig
* NET 1068 = core.iram.a3_x2_10_sig
* NET 1069 = core.iram.a4_x2_2_sig
* NET 1070 = core.iram.na3_x1_22_sig
* NET 1072 = core.iram.na3_x1_20_ins.i0
* NET 1074 = core.iram.ab_data_idx_2_1_ins.sff_s
* NET 1075 = core.iram.ab_data_idx_2_1_ins.y
* NET 1077 = core.iram.ab_data_idx_2_1_ins.u
* NET 1078 = core.iram.ab_data_idx_2_1_ins.sff_m
* NET 1080 = core.iram.ab_data_idx_2_1_ins.ckr
* NET 1082 = core.iram.ao22_x2_10_sig
* NET 1083 = core.iram.ab_data_idx_2_1_ins.nckr
* NET 1084 = core.iram.na2_x1_12_sig
* NET 1088 = core.iram.no2_x1_16_sig
* NET 1090 = core.iram.ab_data_idx_3[1]
* NET 1091 = core.iram.ab_data_idx_2[1]
* NET 1092 = core.iram.ab_data_idx_6[1]
* NET 1095 = core.iram.ab_data_idx_7[1]
* NET 1096 = core.iram.noa2a2a2a24_x1_8_sig
* NET 1098 = core.iram.no2_x1_51_sig
* NET 1103 = core.iram.no2_x1_50_sig
* NET 1104 = p_b0.80onymous_
* NET 1105 = p_b0.57onymous_
* NET 1106 = p_zero.n16b
* NET 1111 = core.iram.not_aux138
* NET 1116 = core.iram.no4_x1_sig
* NET 1117 = core.iram.not_aux140_ins.i0
* NET 1123 = core.iram.o4_x2_sig
* NET 1126 = core.iram.not_b_2_ins.i
* NET 1128 = core.iram.ab_data_idx_14_1_ins.sff_s
* NET 1129 = core.iram.ab_data_idx_14_1_ins.y
* NET 1130 = core.iram.ab_data_idx_14_1_ins.sff_m
* NET 1133 = core.iram.na3_x1_4_sig
* NET 1134 = core.iram.ab_data_idx_14_1_ins.ck
* NET 1135 = core.iram.ab_data_idx_14_1_ins.u
* NET 1136 = core.iram.ab_data_idx_14_1_ins.ckr
* NET 1137 = core.iram.ab_data_idx_14_1_ins.nckr
* NET 1138 = core.iram.na2_x1_51_sig
* NET 1143 = core.iram.inv_x2_17_sig
* NET 1147 = core.iram.no2_x1_14_sig
* NET 1148 = core.iram.nao22_x1_6_ins.i0
* NET 1150 = core.iram.nao22_x1_6_sig
* NET 1152 = core.iram.ab_data_idx_8[2]
* NET 1156 = core.iram.a3_x2_13_sig
* NET 1159 = core.iram.a3_x2_11_ins.i0
* NET 1160 = core.iram.ab_data_idx_8[1]
* NET 1166 = core.iram.no2_x1_19_sig
* NET 1167 = core.iram.a3_x2_11_sig
* NET 1169 = core.iram.noa22_x1_8_sig
* NET 1170 = core.iram.ao22_x2_39_ins.i0
* NET 1175 = core.iram.na3_x1_54_sig
* NET 1176 = core.iram.na3_x1_53_sig
* NET 1179 = core.iram.a3_x2_6_sig
* NET 1180 = core.iram.o3_x2_6_sig
* NET 1184 = core.iram.noa22_x1_9_sig
* NET 1188 = core.iram.a4_x2_3_sig
* NET 1189 = core.iram.a3_x2_12_sig
* NET 1192 = core.iram.a2_x2_12_sig
* NET 1193 = core.iram.a2_x2_11_sig
* NET 1196 = core.iram.na3_x1_52_sig
* NET 1198 = core.iram.na3_x1_52_ins.i0
* NET 1200 = core.iram.na2_x1_25_sig
* NET 1204 = core.iram.no2_x1_21_ins.i0
* NET 1206 = core.iram.ab_data_idx_4[2]
* NET 1207 = core.iram.no2_x1_21_sig
* NET 1214 = core.iram.noa2a2a2a24_x1_4_sig
* NET 1216 = core.iram.no2_x1_22_sig
* NET 1219 = core.iram.no2_x1_20_sig
* NET 1221 = core.iram.no2_x1_49_sig
* NET 1225 = core.iram.no2_x1_57_sig
* NET 1226 = core.iram.ab_data_idx_6[2]
* NET 1231 = core.iram.no2_x1_58_sig
* NET 1232 = core.iram.ab_data_idx_7[2]
* NET 1235 = core.iram.noa2a2a2a24_x1_9_sig
* NET 1236 = core.iram.no2_x1_59_ins.i0
* NET 1238 = core.iram.no2_x1_59_sig
* NET 1239 = p_b0.1280ymous_
* NET 1240 = p_b0.cpb
* NET 1241 = p_b0.324nymous_
* NET 1243 = p_zero.p6c
* NET 1244 = p_zero.301nymous_
* NET 1245 = p_zero.305nymous_
* NET 1246 = p_zero.274nymous_
* NET 1278 = p_b0.259nymous_
* NET 1279 = p_zero.227nymous_
* NET 1280 = zero
* NET 1281 = p_zero.197nymous_
* NET 1282 = p_zero.224nymous_
* NET 1283 = p_zero.193nymous_
* NET 1284 = core.iram.not_aux20_ins.i1
* NET 1287 = core.iram.not_aux20
* NET 1288 = core.iram.o3_x2_2_sig
* NET 1294 = core.iram.not_aux21
* NET 1297 = core.iram.no3_x1_4_sig
* NET 1298 = core.iram.ab_data_idx_14[1]
* NET 1299 = core.iram.nao22_x1_5_sig
* NET 1302 = core.iram.not_aux30
* NET 1306 = core.iram.ab_data_idx_15_2_ins.sff_s
* NET 1307 = core.iram.ab_data_idx_15_2_ins.y
* NET 1308 = core.iram.ab_data_idx_15_2_ins.sff_m
* NET 1311 = core.iram.ao22_x2_50_sig
* NET 1312 = core.iram.ab_data_idx_15_2_ins.u
* NET 1313 = core.iram.ab_data_idx_15_2_ins.ckr
* NET 1315 = core.iram.not_aux80_ins.i0
* NET 1316 = core.iram.ab_data_idx_15_2_ins.nckr
* NET 1318 = core.iram.not_aux80_ins.i1
* NET 1323 = core.iram.no2_x1_24_ins.i0
* NET 1326 = core.iram.ab_data_idx_12[2]
* NET 1328 = core.iram.ab_data_idx_15[2]
* NET 1329 = core.iram.no2_x1_25_sig
* NET 1330 = core.iram.no2_x1_24_sig
* NET 1331 = core.iram.noa2a2a2a24_x1_5_sig
* NET 1337 = core.iram.no2_x1_27_sig
* NET 1338 = core.iram.no2_x1_47_sig
* NET 1339 = core.iram.no2_x1_52_sig
* NET 1343 = core.iram.no2_x1_54_sig
* NET 1345 = core.iram.noa2a2a23_x1_5_sig
* NET 1347 = core.iram.ab_data_idx_11[2]
* NET 1348 = core.iram.ab_data_idx_10[2]
* NET 1349 = core.iram.na3_x1_26_ins.i0
* NET 1350 = core.iram.na3_x1_26_sig
* NET 1351 = core.iram.na3_x1_28_sig
* NET 1352 = core.iram.na4_x1_6_sig
* NET 1353 = core.iram.na4_x1_7_sig
* NET 1357 = core.iram.ab_data_idx_5[2]
* NET 1358 = core.iram.ab_data_idx_5_2_ins.y
* NET 1360 = core.iram.ab_data_idx_5_2_ins.sff_m
* NET 1361 = core.iram.ab_data_idx_5_2_ins.sff_s
* NET 1362 = core.iram.ab_data_idx_5_2_ins.ck
* NET 1363 = core.iram.ao22_x2_23_sig
* NET 1364 = core.iram.ab_data_idx_5_2_ins.u
* NET 1366 = core.iram.ab_data_idx_5_2_ins.ckr
* NET 1367 = core.iram.ab_data_idx_5_2_ins.nckr
* NET 1368 = core.iram.na3_x1_29_sig
* NET 1369 = core.iram.no2_x1_23_sig
* NET 1371 = core.iram.ab_data_idx_3[2]
* NET 1372 = core.iram.na3_x1_27_sig
* NET 1373 = core.iram.no2_x1_48_ins.i0
* NET 1374 = core.iram.no2_x1_48_sig
* NET 1377 = core.iram.no2_x1_18_sig
* NET 1379 = core.iram.na2_x1_13_sig
* NET 1382 = core.iram.ab_data_idx_2[2]
* NET 1384 = core.iram.ab_data_idx_2_2_ins.sff_s
* NET 1385 = core.iram.ao22_x2_11_sig
* NET 1386 = core.iram.ab_data_idx_2_2_ins.y
* NET 1389 = core.iram.ab_data_idx_2_2_ins.sff_m
* NET 1392 = core.iram.ab_data_idx_2_2_ins.u
* NET 1393 = core.iram.ab_data_idx_2_2_ins.ckr
* NET 1394 = core.iram.ab_data_idx_2_2_ins.nckr
* NET 1396 = core.iram.no2_x1_56_sig
* NET 1398 = p_b0.1066ymous_
* NET 1400 = p_b0.n14c
* NET 1402 = b[0]
* NET 1403 = p_zero.318nymous_
* NET 1405 = core.iram.not_aux7_ins.i1
* NET 1407 = core.iram.not_alu_out[0]
* NET 1411 = core.iram.inv_x2_2_sig
* NET 1412 = core.iram.not_aux95
* NET 1413 = core.iram.not_aux8_ins.i0
* NET 1415 = core.iram.not_aux91_ins.i0
* NET 1421 = core.iram.aux154
* NET 1426 = core.iram.not_aux80
* NET 1428 = core.iram.aux81_ins.nq
* NET 1434 = core.iram.ab_data_idx_14_2_ins.ck
* NET 1435 = core.iram.ab_data_idx_14_2_ins.u
* NET 1436 = core.iram.ab_data_idx_14_2_ins.ckr
* NET 1437 = core.iram.ab_data_idx_14_2_ins.nckr
* NET 1438 = core.iram.na2_x1_48_sig
* NET 1440 = core.iram.ao22_x2_47_sig
* NET 1441 = core.iram.ab_data_idx_14[2]
* NET 1442 = core.iram.no2_x1_26_ins.i0
* NET 1445 = core.iram.no2_x1_26_sig
* NET 1449 = core.iram.no2_x1_44_sig
* NET 1451 = core.iram.no2_x1_55_sig
* NET 1452 = core.iram.no2_x1_53_ins.i0
* NET 1454 = core.iram.no2_x1_53_sig
* NET 1460 = core.iram.aux61_ins.i0
* NET 1465 = core.iram.aux14_ins.i0
* NET 1472 = core.iram.not_aux55
* NET 1474 = core.iram.na2_x1_27_sig
* NET 1478 = core.iram.ao22_x2_25_sig
* NET 1483 = core.iram.ab_data_idx_6_0_ins.u
* NET 1485 = core.iram.ab_data_idx_6_0_ins.ckr
* NET 1486 = core.iram.ab_data_idx_6_0_ins.nckr
* NET 1492 = core.iram.aux17
* NET 1499 = core.iram.na3_x1_3_ins.i1
* NET 1507 = core.iram.ab_data_idx_14_2_ins.sff_s
* NET 1509 = core.iram.ab_data_idx_14_2_ins.y
* NET 1510 = core.iram.ab_data_idx_14_2_ins.sff_m
* NET 1516 = core.iram.not_aux8
* NET 1522 = core.iram.aux159
* NET 1527 = core.iram.not_aux9
* NET 1532 = core.iram.aux160
* NET 1541 = core.iram.ab_data_idx_6_0_ins.sff_s
* NET 1542 = core.iram.ab_data_idx_6_0_ins.sff_m
* NET 1543 = core.iram.ab_data_idx_6_0_ins.y
* NET 1548 = p_a3.132nymous_
* NET 1549 = p_ovr.n15d
* NET 1550 = p_ovr.n18f
* NET 1551 = core.iram.not_aux101_ins.i0
* NET 1552 = core.iram.not_aux15
* NET 1560 = core.iram.r0_to_ins.q
* NET 1563 = core.iram.no2_x1_68_sig
* NET 1564 = core.iram.not_b[0]
* NET 1565 = core.iram.not_aux7
* NET 1569 = core.iram.not_aux43
* NET 1575 = core.iram.ab_data_idx_15_0_ins.y
* NET 1576 = core.iram.ab_data_idx_15_0_ins.sff_s
* NET 1577 = core.iram.ab_data_idx_15_0_ins.u
* NET 1579 = core.iram.ab_data_idx_15_0_ins.sff_m
* NET 1581 = core.iram.ab_data_idx_15_0_ins.ck
* NET 1582 = core.iram.ao22_x2_49_sig
* NET 1583 = core.iram.ab_data_idx_15_0_ins.ckr
* NET 1584 = core.iram.ab_data_idx_15_0_ins.nckr
* NET 1585 = core.iram.aux103
* NET 1588 = core.iram.na2_x1_50_sig
* NET 1589 = core.iram.not_aux69
* NET 1591 = core.iram.not_b[3]
* NET 1592 = core.iram.not_aux46_ins.i0
* NET 1595 = core.iram.aux87_ins.i0
* NET 1598 = core.iram.not_aux46
* NET 1600 = core.iram.na2_x1_39_sig
* NET 1604 = core.iram.ab_data_idx_10_0_ins.y
* NET 1606 = core.iram.ab_data_idx_10_0_ins.sff_m
* NET 1607 = core.iram.ab_data_idx_10_0_ins.sff_s
* NET 1608 = core.iram.ao22_x2_37_sig
* NET 1610 = core.iram.ab_data_idx_10_0_ins.u
* NET 1612 = core.iram.ab_data_idx_10_0_ins.ckr
* NET 1613 = core.iram.ab_data_idx_10_0_ins.nckr
* NET 1615 = core.iram.ab_data_idx_0_0_ins.y
* NET 1617 = core.iram.ab_data_idx_0_0_ins.sff_s
* NET 1618 = core.iram.ab_data_idx_0_0_ins.u
* NET 1620 = core.iram.ab_data_idx_0_0_ins.sff_m
* NET 1621 = core.iram.ab_data_idx_0_0_ins.ckr
* NET 1622 = core.iram.ab_data_idx_0_0_ins.ck
* NET 1623 = core.iram.ab_data_idx_0_0_ins.nckr
* NET 1624 = core.iram.ao22_x2_sig
* NET 1627 = core.iram.na2_x1_3_sig
* NET 1628 = core.iram.ab_data_idx_3_0_ins.y
* NET 1630 = core.iram.ab_data_idx_3_0_ins.sff_s
* NET 1631 = core.iram.ab_data_idx_3_0_ins.ckr
* NET 1632 = core.iram.ab_data_idx_3_0_ins.u
* NET 1635 = core.iram.ab_data_idx_3_0_ins.sff_m
* NET 1637 = core.iram.ab_data_idx_3_0_ins.nckr
* NET 1638 = core.iram.ao22_x2_13_sig
* NET 1641 = core.iram.na2_x1_15_sig
* NET 1642 = core.iram.na2_x1_11_sig
* NET 1646 = core.iram.not_aux115
* NET 1650 = core.iram.ab_data_idx_2_0_ins.sff_s
* NET 1651 = core.iram.ao22_x2_9_sig
* NET 1652 = core.iram.ab_data_idx_2_0_ins.y
* NET 1654 = core.iram.ab_data_idx_2_0_ins.sff_m
* NET 1656 = core.iram.ab_data_idx_2_0_ins.ck
* NET 1657 = core.iram.ab_data_idx_2_0_ins.u
* NET 1658 = core.iram.ab_data_idx_2_0_ins.nckr
* NET 1659 = core.iram.ab_data_idx_2_0_ins.ckr
* NET 1660 = p_a3.93onymous_
* NET 1661 = p_a3.p2
* NET 1662 = p_ovr.406nymous_
* NET 1663 = p_ovr.13onymous_
* NET 1689 = p_a3.cpb
* NET 1690 = p_a3.414nymous_
* NET 1691 = p_a3.n8b
* NET 1693 = p_ovr.299nymous_
* NET 1694 = p_ovr.p7a
* NET 1695 = p_ovr.293nymous_
* NET 1696 = r0_from_pads
* NET 1697 = core.iram.na2_x1_2_sig
* NET 1700 = core.iram.a3_x2_ins.i2
* NET 1702 = core.iram.a3_x2_sig
* NET 1704 = core.iram.not_aux29
* NET 1706 = core.iram.na2_x1_sig